71434277
     RDKit          3D

 52 55  0  0  0  0  0  0  0  0999 V2000
    5.8104   -2.9062    1.4727 F   0  0  0  0  0  0  0  0  0  0  0  0
    4.1940   -3.9701    2.4640 F   0  0  0  0  0  0  0  0  0  0  0  0
    4.5546   -4.2796    0.3479 F   0  0  0  0  0  0  0  0  0  0  0  0
   -0.1673   -3.9378    0.6048 O   0  0  0  0  0  0  0  0  0  0  0  0
    3.7298    1.4580    0.4804 N   0  0  0  0  0  0  0  0  0  0  0  0
   -0.0032   -1.6179    0.2930 N   0  0  0  0  0  0  0  0  0  0  0  0
   -4.8938   -0.3488    0.5132 N   0  0  0  0  0  0  0  0  0  0  0  0
    5.1854    3.1352    0.4838 N   0  0  0  0  0  0  0  0  0  0  0  0
   -5.4498    1.8998    0.8608 N   0  0  0  0  0  0  0  0  0  0  0  0
   -3.2385    1.2664    0.1426 N   0  0  0  0  0  0  0  0  0  0  0  0
    3.2357    0.1706    0.5833 C   0  0  0  0  0  0  0  0  0  0  0  0
    1.3774   -1.3707    0.4919 C   0  0  0  0  0  0  0  0  0  0  0  0
    3.5975   -2.1835    0.9894 C   0  0  0  0  0  0  0  0  0  0  0  0
    1.8763   -0.0722    0.3872 C   0  0  0  0  0  0  0  0  0  0  0  0
    4.0964   -0.8851    0.8845 C   0  0  0  0  0  0  0  0  0  0  0  0
    2.2381   -2.4263    0.7931 C   0  0  0  0  0  0  0  0  0  0  0  0
   -2.1243   -2.7732    0.1297 C   0  0  0  0  0  0  0  0  0  0  0  0
   -4.2010   -1.5411    0.2086 C   0  0  0  0  0  0  0  0  0  0  0  0
   -4.8775   -2.6486   -0.3030 C   0  0  0  0  0  0  0  0  0  0  0  0
   -0.6891   -2.8390    0.3550 C   0  0  0  0  0  0  0  0  0  0  0  0
    3.0069    2.5813    0.1931 C   0  0  0  0  0  0  0  0  0  0  0  0
   -2.8244   -1.6036    0.4250 C   0  0  0  0  0  0  0  0  0  0  0  0
   -2.8007   -3.8806   -0.3818 C   0  0  0  0  0  0  0  0  0  0  0  0
    4.5175   -3.3124    1.3117 C   0  0  0  0  0  0  0  0  0  0  0  0
    5.0319    1.8399    0.6470 C   0  0  0  0  0  0  0  0  0  0  0  0
    3.9266    3.6034    0.2008 C   0  0  0  0  0  0  0  0  0  0  0  0
   -4.1774   -3.8184   -0.5980 C   0  0  0  0  0  0  0  0  0  0  0  0
   -6.3515   -2.6097   -0.5448 C   0  0  0  0  0  0  0  0  0  0  0  0
    3.6985    5.0352   -0.0469 C   0  0  0  0  0  0  0  0  0  0  0  0
   -4.5086    1.0046    0.5053 C   0  0  0  0  0  0  0  0  0  0  0  0
   -5.0468    3.1874    0.8422 C   0  0  0  0  0  0  0  0  0  0  0  0
   -2.9031    2.5733    0.1462 C   0  0  0  0  0  0  0  0  0  0  0  0
   -3.7736    3.5872    0.4902 C   0  0  0  0  0  0  0  0  0  0  0  0
    1.1689    0.7166    0.1520 H   0  0  0  0  0  0  0  0  0  0  0  0
    5.1585   -0.7371    1.0441 H   0  0  0  0  0  0  0  0  0  0  0  0
    1.9175   -3.4541    0.8887 H   0  0  0  0  0  0  0  0  0  0  0  0
   -0.5272   -0.7855    0.0368 H   0  0  0  0  0  0  0  0  0  0  0  0
    1.9428    2.6072    0.0078 H   0  0  0  0  0  0  0  0  0  0  0  0
   -2.3167   -0.7788    0.9124 H   0  0  0  0  0  0  0  0  0  0  0  0
   -2.2735   -4.8000   -0.6234 H   0  0  0  0  0  0  0  0  0  0  0  0
    5.8506    1.1752    0.8839 H   0  0  0  0  0  0  0  0  0  0  0  0
   -4.6886   -4.6902   -0.9975 H   0  0  0  0  0  0  0  0  0  0  0  0
   -6.8923   -2.5217    0.4032 H   0  0  0  0  0  0  0  0  0  0  0  0
   -6.6154   -1.7691   -1.1952 H   0  0  0  0  0  0  0  0  0  0  0  0
   -6.7055   -3.5202   -1.0407 H   0  0  0  0  0  0  0  0  0  0  0  0
   -5.8856   -0.4634    0.6940 H   0  0  0  0  0  0  0  0  0  0  0  0
    2.6428    5.2462   -0.2449 H   0  0  0  0  0  0  0  0  0  0  0  0
    4.2792    5.3698   -0.9122 H   0  0  0  0  0  0  0  0  0  0  0  0
    4.0051    5.6263    0.8216 H   0  0  0  0  0  0  0  0  0  0  0  0
   -5.8006    3.9133    1.1277 H   0  0  0  0  0  0  0  0  0  0  0  0
   -1.8805    2.7897   -0.1444 H   0  0  0  0  0  0  0  0  0  0  0  0
   -3.4775    4.6275    0.4843 H   0  0  0  0  0  0  0  0  0  0  0  0
  1 24  1  0
  2 24  1  0
  3 24  1  0
  4 20  2  0
  5 11  1  0
  5 21  1  0
  5 25  1  0
  6 12  1  0
  6 20  1  0
  6 37  1  0
  7 18  1  0
  7 30  1  0
  7 46  1  0
  8 25  2  0
  8 26  1  0
  9 30  2  0
  9 31  1  0
 10 30  1  0
 10 32  2  0
 11 14  2  0
 11 15  1  0
 12 14  1  0
 12 16  2  0
 13 15  2  0
 13 16  1  0
 13 24  1  0
 14 34  1  0
 15 35  1  0
 16 36  1  0
 17 20  1  0
 17 22  2  0
 17 23  1  0
 18 19  2  0
 18 22  1  0
 19 27  1  0
 19 28  1  0
 21 26  2  0
 21 38  1  0
 22 39  1  0
 23 27  2  0
 23 40  1  0
 25 41  1  0
 26 29  1  0
 27 42  1  0
 28 43  1  0
 28 44  1  0
 28 45  1  0
 29 47  1  0
 29 48  1  0
 29 49  1  0
 31 33  2  0
 31 50  1  0
 32 33  1  0
 32 51  1  0
 33 52  1  0
M  ISO  3  43   2  44   2  45   2
M  END
>  <PUBCHEM_ATOM_DEF_STEREO_COUNT>  (1) 
0

>  <PUBCHEM_ATOM_UDEF_STEREO_COUNT>  (1) 
0

>  <PUBCHEM_BOND_DEF_STEREO_COUNT>  (1) 
0

>  <PUBCHEM_BOND_UDEF_STEREO_COUNT>  (1) 
0

>  <PUBCHEM_CACTVS_TAUTO_COUNT>  (1) 
15

>  <PUBCHEM_COMPONENT_COUNT>  (1) 
1

>  <PUBCHEM_COMPOUND_CID>  (1) 
71434277

>  <PUBCHEM_CONFORMER_DIVERSEORDER>  (1) 
1
40
52
23
24
19
47
49
35
45
43
10
14
21
44
54
4
15
41
28
37
33
38
22
36
26
42
13
53
50
25
17
34
5
48
30
7
27
32
31
12
9
39
16
3
29
11
6
2
51
20
18
46
8

>  <PUBCHEM_CONFORMER_ID>  (1) 
0442002500000001

>  <PUBCHEM_CONFORMER_RMSD>  (1) 
1

>  <PUBCHEM_COORDINATE_TYPE>  (1) 
2
5
10

>  <PUBCHEM_EFFECTIVE_ROTOR_COUNT>  (1) 
7

>  <PUBCHEM_FEATURE_SELFOVERLAP>  (1) 
50.747

>  <PUBCHEM_HEAVY_ATOM_COUNT>  (1) 
33

>  <PUBCHEM_ISOTOPIC_ATOM_COUNT>  (1) 
3

>  <PUBCHEM_MMFF94_ENERGY>  (1) 
102.5936

>  <PUBCHEM_MMFF94_PARTIAL_CHARGES>  (1) 
46
1 -0.34
10 -0.62
11 -0.02
12 0.12
13 -0.14
14 -0.15
15 -0.15
16 -0.15
17 0.09
18 0.1
19 -0.14
2 -0.34
20 0.54
21 -0.3
22 -0.15
23 -0.15
24 1.16
25 0.04
26 0.05
27 -0.15
28 0.14
29 0.18
3 -0.34
30 0.72
31 0.16
32 0.16
33 -0.15
34 0.15
35 0.15
36 0.15
37 0.37
38 0.15
39 0.15
4 -0.57
40 0.15
41 0.15
42 0.15
46 0.4
5 0.33
50 0.15
51 0.15
52 0.15
6 -0.55
7 -0.6
8 -0.57
9 -0.62

>  <PUBCHEM_PHARMACOPHORE_FEATURES>  (1) 
10
1 4 acceptor
1 6 donor
1 7 donor
1 9 acceptor
3 5 8 25 cation
4 7 9 10 30 cation
5 5 8 21 25 26 rings
6 11 12 13 14 15 16 rings
6 17 18 19 22 23 27 rings
6 9 10 30 31 32 33 rings

>  <PUBCHEM_SHAPE_FINGERPRINT>  (1) 
10050765 1 18410576175600609477
10254770 206 17685196297443691434
10290309 65 17543909005792132902
10595046 47 18264772232502585940
1100329 8 18266178327316625171
11136131 41 18188759661639633546
11227688 84 17837479019079331399
11756154 67 17978234863961111254
11796584 16 18272098179889395076
11963148 33 18261665992654702970
12107183 9 18194685860617351953
14117953 113 17908422450980853470
14347332 77 18265892639298795965
14394314 77 18123757715020926211
14790565 3 17979640039815874353
15250474 111 18409726296273098990
15320467 1 18266176330241897538
15347590 135 17698721742227449728
15361156 5 17895770516872401020
15392192 29 18055360132971921974
15781502 409 18269855240904459358
16628084 112 18411128152957737967
17492 89 18410008866255915338
19301679 30 18264778821504690227
19958102 18 18336252471772931269
21703447 108 17983849270690115641
21792965 20 17843372264111982273
23559900 14 18340198575780961240
25222932 49 18198341960740180854
3246872 21 18051969517905167286
3886686 26 18267870488818493407
4073 2 18336271236189810136
463206 1 18263647273319811522
5309563 4 17908706477273859927
56633871 153 18265053539632420912
7970288 3 17907293604953642951

>  <PUBCHEM_SHAPE_MULTIPOLES>  (1) 
621.55
15.59
7.63
0.81
2.95
5.96
-0.07
3.66
-0.02
-3.73
-0.12
0.06
-0.13
-3.96

>  <PUBCHEM_SHAPE_SELFOVERLAP>  (1) 
1367.815

>  <PUBCHEM_SHAPE_VOLUME>  (1) 
336.3

$$$$
